Version 4
SHEET 1 1632 736
WIRE 336 32 176 32
WIRE 576 32 336 32
WIRE 128 96 -272 96
WIRE 128 112 128 96
WIRE 176 112 176 32
WIRE -272 128 -272 96
WIRE 576 128 576 32
WIRE 256 144 192 144
WIRE 336 144 336 32
WIRE 256 176 192 176
WIRE 256 208 192 208
WIRE -272 240 -272 208
WIRE 128 304 128 240
WIRE 176 304 176 240
WIRE 336 352 336 224
WIRE 576 352 576 208
FLAG -272 240 0
FLAG 176 304 0
FLAG 576 352 0
FLAG 336 32 out
FLAG 128 304 0
FLAG 256 144 Rhs
FLAG 256 176 Isw
FLAG 256 208 T
FLAG 336 352 0
SYMBOL current -272 208 R180
WINDOW 0 24 80 Left 2
WINDOW 3 24 0 Left 2
WINDOW 123 0 0 Left 0
WINDOW 39 0 0 Left 0
SYMATTR InstName I1
SYMATTR Value PULSE(0 {I_heater} 200n 0.01n 0.01n {pulse_length})
SYMBOL current 576 208 R180
WINDOW 0 24 80 Left 2
WINDOW 3 -455 38 Left 2
WINDOW 123 0 0 Left 0
WINDOW 39 0 0 Left 0
SYMATTR InstName I2
SYMATTR Value PWL(0 0 0.3n {I_drain} 20n {I_drain})
SYMBOL res 320 128 R0
SYMATTR InstName R1
SYMATTR Value 50
SYMBOL QNN\\hTron_behavioral 192 176 R0
WINDOW 39 90 -190 Bottom 2
SYMATTR InstName X1
SYMATTR SpiceLine width_c=600n, width_h=500n, thick_c=20n, Lind_c=500n, R_h=50, Tsub=3, Tc=8.4, sheetRes=470, eta=2, Jsw_tilde=131.7u/(width_c*thick_c), Isupp_tilde=63.7u, Jconstr=100G, tau_on=750p, ICh_on=100u, Ih_on=40u
TEXT 648 264 Left 2 !.param I_drain 100u
TEXT -208 -160 Left 2 !.tran 0 250n 195n 10p
TEXT -632 304 Left 2 !.param I_heater 40u\n.param pulse_length=1n
TEXT -200 -216 Left 2 !.options reltol 1e-6
TEXT -976 720 Left 2 ;width_c=600n, width_h=500n, thick_c=20n, Lind_c=500n, R_h=50, Tsub=3, Tc=8.4, sheetRes=470, eta=2, Jsw_tilde=131.7u/(width_c*thick_c), Isupp_tilde=63.7u, Jconstr=100G, tau_on=750p, ICh_on=100u, Ih_on=40u
TEXT -1016 496 Right 2 ;Reproduce Fig. 5 of paper:\n(set pulse_length=1u, and make the sources sweep as in the paper\nI_drain from 0 to 280.3u, Ih from 0 to 1455.1u)
TEXT -1008 688 Right 2 ;Reproduce Fig. 6 of paper:\n(set pulse_length=1n, I_heater=40u and I_drain=40u)
TEXT -960 520 Left 2 ;width_c=0.5u, width_h=1u, thick_c=23.6n, length_c=14u, R_h=50, Tsub=4.2, Tc=12.5, sheetRes=77.9, eta=3, Jsw_tilde=88.3G, Isupp_tilde=389.7u, Jconstr=100G, tau_on=11.85n, ICh_on=280u, Ih_on=1455u
TEXT -448 -72 Left 3 ;hTron parameters: copy-paste here the parameter set that you wish to simulate
